/*--------------------------------*- C++ -*----------------------------------*\
| =========                 |                                                 |
| \\      /  F ield         | OpenFOAM: The Open Source CFD Toolbox           |
|  \\    /   O peration     | Version:  v2312                                 |
|   \\  /    A nd           | Website:  www.openfoam.com                      |
|    \\/     M anipulation  |                                                 |
\*---------------------------------------------------------------------------*/
FoamFile
{
    version     2.0;
    format      ascii;
    class       volScalarField;
    object      p;
}
// * * * * * * * * * * * * * * * * * * * * * * * * * * * * * * * * * * * * * //

dimensions      [0 2 -2 0 0 0 0];

internalField   uniform 0;

boundaryField
{
    inlet
    {
        type            uniformTotalPressure;
        p0              table
        (
            (0 10)  // at t = 0, p = 10
            (1 40)  // at t = 1, p = 40
        );
    }

    outlet1
    {
        type            fixedValue;
        value           uniform 10;  // outlet pressure of 10
    }

    outlet2
    {
        type            fixedValue;
        value           uniform 0;  // outlet pressure of 1
    }

    defaultFaces
    {
        type            zeroGradient;
    }
}


// ************************************************************************* //
