/*--------------------------------*- C++ -*----------------------------------*\
| =========                 |                                                 |
| \\      /  F ield         | OpenFOAM: The Open Source CFD Toolbox           |
|  \\    /   O peration     | Version:  v2312                                 |
|   \\  /    A nd           | Website:  www.openfoam.com                      |
|    \\/     M anipulation  |                                                 |
\*---------------------------------------------------------------------------*/
FoamFile
{
    version     2.0;
    format      ascii;
    class       volVectorField;
    object      U;
}
// * * * * * * * * * * * * * * * * * * * * * * * * * * * * * * * * * * * * * //

dimensions      [0 1 -1 0 0 0 0];

internalField   uniform (0 0 0);

boundaryField
{
    inlet
    {
        type            pressureInletOutletVelocity;  //assumes BC at pressure inlet, this computes the corresponding velocity for the inlet
        value           uniform (0 0 0);
    }

    outlet1
    {
        type            inletOutlet;  // prevents recirculation by using default value below
        inletValue      uniform (0 0 0);
        value           uniform (0 0 0);
    }

    outlet2
    {
        type            inletOutlet;
        inletValue      uniform (0 0 0);
        value           uniform (0 0 0);
    }

    defaultFaces
    {
        type            noSlip;
    }
}


// ************************************************************************* //
